20

C     -3.992167   -0.419795   -0.117141
S     -2.543913   -0.065344    0.901579
C     -2.518245    1.717632    0.564643
N     -1.462613   -0.514477   -0.363203
C     -0.086298   -0.598982    0.104374
P      0.425561   -2.024703   -0.906311
C     -0.167516   -3.393132    0.153653
C     -0.554986   -4.664234    0.958978
S      0.787845    0.818947   -0.619560
N      2.328795    0.635000    0.169085
C      3.409642    1.056683   -0.705694
F      4.590639    0.940630   -0.024858
H     -1.602768    2.141321    0.986265
H     -2.560769    1.937016   -0.506514
H     -3.371636    2.184584    1.065193
H      0.102746   -0.679800    1.177874
H     -0.679054   -1.940487   -1.781205
H      1.054742    0.327946   -1.850290
H      3.506475    0.437685   -1.603771
H      3.333521    2.103509   -1.018074
