9

N      2.522094   -0.170228    0.711680
C      1.460022    0.022123    0.279739
C      0.103769    0.240705   -0.284792
N     -0.839187   -0.798395    0.083942
O     -0.456435    1.449262    0.182753
H      0.174429    0.304179   -1.375565
H     -1.715618   -0.595812   -0.394403
H     -0.511384   -1.687050   -0.293044
H     -0.737691    1.235215    1.089691
