51

C     -9.050971    2.902439   -1.032386
C     -8.617062    1.730034   -1.871645
O     -9.355319    1.215249   -2.704179
N     -7.323085    1.324797   -1.635159
C     -6.785664    0.122025   -2.251129
C     -7.154090   -1.148610   -1.476417
C     -6.521892   -1.194592   -0.115368
C     -7.145004   -0.939188    1.091933
N     -6.214996   -1.057687    2.089658
C     -4.987090   -1.383505    1.561462
C     -5.151853   -1.491767    0.180071
C     -4.031462   -1.831245   -0.607399
C     -2.784880   -2.021779    0.006516
O     -1.750851   -2.374923   -0.828745
C     -0.595273   -1.769865   -0.547870
C      0.456984   -1.236114   -0.315260
O      1.612410   -0.634028   -0.051777
S      2.865754   -1.725588    0.052453
P      3.730351   -1.020216    1.843363
N      4.747858    0.218109    1.176261
N      5.616531    1.262791    0.629895
P      7.270916    0.754821    0.800390
P      8.121345    2.778854    0.783093
P      9.196517    2.595419   -1.108634
P     11.222934    2.817735   -0.299116
N     12.009974    2.214479   -1.715376
P     13.322844    1.162277   -1.303501
P     12.727237   -0.352050   -2.771631
P     12.302519   -1.971195   -1.380025
P     10.621153   -1.128125   -0.278803
O     11.466130   -1.085607    1.170714
S     10.808640    0.112722    2.120053
P     12.545295    0.720027    3.132621
S     11.547982    1.228752    4.914017
C     -2.654435   -1.917386    1.393401
C     -3.755734   -1.592239    2.196373
H     -8.903314    3.825227   -1.599946
H    -10.109085    2.791012   -0.776014
H     -8.480910    2.956616   -0.101329
H     -6.882786    1.626622   -0.775304
H     -5.700320    0.251341   -2.302680
H     -7.167029    0.048542   -3.275507
H     -6.830050   -2.025783   -2.049883
H     -8.243367   -1.225027   -1.375439
H     -8.172401   -0.682757    1.321906
H     -6.392424   -0.920606    3.075533
H     -4.124265   -1.934593   -1.684750
H      4.732541   -2.008671    1.985499
H     13.301385   -1.642475   -0.435818
H     -1.695528   -2.100690    1.872131
H     -3.646162   -1.501561    3.273748
