52

C     -7.239858   -0.437492   -2.177485
C     -7.430533   -0.057754   -0.733065
O     -8.295358   -0.581110   -0.037823
N     -6.571831    0.920174   -0.288833
C     -6.567138    1.376703    1.091312
C     -5.177602    1.303548    1.734616
C     -4.597736   -0.078709    1.771743
C     -5.176459   -1.188376    2.357099
N     -4.357122   -2.263738    2.153746
C     -3.233929   -1.879523    1.461097
C     -3.348685   -0.511654    1.214266
C     -2.303414    0.135995    0.514283
C     -1.191410   -0.601007    0.086519
O     -0.112107   -0.099591   -0.592577
C     -0.106715    1.300976   -0.836738
S      1.430006    1.729866   -1.720753
S      2.869117    1.394768   -0.274043
C      3.047173   -0.278880   -0.392542
N      3.164013   -1.727942   -0.511149
S      4.348784   -2.505630    0.335353
N      5.814032   -1.965016   -0.369515
C      7.037522   -1.458808   -0.976939
C      8.106617   -0.954933   -1.505799
C      8.406869    0.475552   -1.321533
O      9.467853    0.986665   -1.864160
P      9.735697    2.620020   -1.594503
C     10.477562    3.265934   -0.033555
N     10.841491    2.583709    1.004526
C     10.710050    1.252619    1.031439
F     10.534183   -0.077202    1.026367
C     -1.124843   -1.970888    0.344059
C     -2.139064   -2.637390    1.037200
H     -7.085287   -1.518209   -2.245025
H     -6.375203    0.062827   -2.621864
H     -8.133770   -0.156289   -2.740845
H     -5.891075    1.309836   -0.926188
H     -7.294233    0.807759    1.681348
H     -6.902612    2.419478    1.075532
H     -4.501099    1.975095    1.193113
H     -5.240552    1.685351    2.761366
H     -6.116648   -1.307585    2.880213
H     -4.548230   -3.206744    2.462627
H     -2.394136    1.198712    0.329485
H     -0.139810    1.881658    0.091342
H     -0.931667    1.577225   -1.501703
H      1.550826    0.606466   -2.465332
H      2.258294   -2.158609   -0.327383
H      8.795992   -1.545039   -2.094486
H      7.668560    1.025368   -0.703205
H     10.603996    4.360859   -0.014991
H     -0.266020   -2.540427   -0.000533
H     -2.074489   -3.702646    1.233921
