33

C      5.041155   -2.070588   -0.260826
C      4.133683   -0.977499    0.235322
O      4.367296   -0.351668    1.263637
N      3.022064   -0.772692   -0.548172
C      2.022354    0.225927   -0.212891
C      1.091245   -0.229026    0.914632
C     -0.021666    0.742878    1.151627
C     -0.020840    1.778186    2.065676
N     -1.212268    2.443383    1.965037
C     -1.997538    1.867170    0.994640
C     -1.282738    0.789288    0.473761
C     -1.873856    0.016619   -0.550453
C     -3.157483    0.338577   -1.006433
O     -3.829318   -0.327294   -1.996562
C     -3.525031   -1.708133   -2.163470
Cl    -2.347194   -1.932352   -3.471794
C     -3.830925    1.439913   -0.477382
C     -3.270975    2.220987    0.538574
H      4.889438   -2.263280   -1.326758
H      6.081351   -1.765941   -0.116235
H      4.842837   -2.985661    0.302903
H      2.847051   -1.381668   -1.336681
H      2.535767    1.153510    0.066638
H      1.455787    0.424326   -1.129643
H      0.671406   -1.213592    0.672262
H      1.662731   -0.365572    1.841022
H      0.732217    2.098908    2.774462
H     -1.474752    3.253209    2.510408
H     -1.305314   -0.802841   -0.972828
H     -3.174397   -2.196935   -1.247242
H     -4.445224   -2.213135   -2.471749
H     -4.818125    1.695542   -0.856694
H     -3.808741    3.069453    0.948387
