51

C     -6.103642    1.230514   -3.648974
C     -4.921721    1.358833   -2.730329
O     -3.845429    1.802991   -3.120230
N     -5.070750    0.968175   -1.431946
C     -6.178350    0.224316   -0.852646
C     -6.054730   -1.293104   -1.046524
C     -5.019980   -1.920396   -0.162291
C     -5.254461   -2.541023    1.050189
N     -4.061001   -3.003316    1.536284
C     -3.041325   -2.696025    0.666517
C     -3.611608   -2.017383   -0.410582
C     -2.768693   -1.593467   -1.458688
C     -1.394199   -1.841850   -1.367950
O     -0.539717   -1.436612   -2.370364
C     -0.488632   -0.076859   -2.617127
C     -0.108994    0.724915   -1.667270
C      0.253555    1.430179   -0.764966
S      0.777275    2.392842    0.524974
S      1.811015    1.005547    1.629502
S      3.669971    0.916255    0.773526
S      4.698239    2.500740    1.573784
O      5.240745    1.770471    2.966065
P      6.816875    1.421180    2.847874
P      6.814597   -0.469697    3.921207
S      7.067572   -1.619388    2.183398
S      8.960781   -2.312815    2.542336
S     10.219784   -0.863208    1.824627
S      7.524288    2.632382    4.416774
P      9.381395    3.202005    3.616904
S      8.679267    4.954872    2.695794
C      8.301366    4.480955    1.116594
S      7.892253    3.948316   -0.436014
P      9.182764    2.337209   -0.779874
Br     7.625948    0.954916   -1.453032
C     -0.853619   -2.539314   -0.292273
C     -1.671189   -2.977291    0.752833
H     -6.417137    0.188044   -3.723836
H     -6.929795    1.852177   -3.290811
H     -5.823685    1.576140   -4.648422
H     -4.212429    1.028180   -0.891533
H     -6.216435    0.484509    0.210642
H     -7.108150    0.570683   -1.312642
H     -5.836502   -1.537779   -2.095015
H     -7.028300   -1.749707   -0.818027
H     -6.169905   -2.702964    1.602779
H     -3.940827   -3.505659    2.404920
H     -3.174628   -1.078669   -2.321884
H     -0.271306    0.113093   -3.660874
H     10.237039   -0.046100    2.887362
H      0.215235   -2.734362   -0.258551
H     -1.252826   -3.513450    1.598008
