10

C     -1.556867   -0.139504   -1.002518
O     -0.672640   -0.677349   -0.023610
N      0.464852    0.225205    0.104858
S      1.892227   -0.600283   -0.113938
S      2.883289   -0.041221    1.620436
O      2.006445    0.745561    2.537137
H     -2.414570   -0.811345   -1.094864
H     -1.917869    0.846399   -0.692350
H     -1.059434   -0.073546   -1.975540
H      0.374565    0.526084    1.084130
