49
scaffold_6
B        0.47476100      -0.80795500      -0.02224500
C        1.97260900      -0.89536600      -0.40669600
H        2.24865300      -1.41775800      -1.32488900
C        2.95153600      -0.38374000       0.37537900
H        2.64898300       0.11501100       1.29817800
C        4.39643300      -0.41911700       0.15022700
C        4.98521300      -1.01218900      -0.98670300
C        6.36754400      -1.01268400      -1.15357900
C        7.19768200      -0.42206700      -0.19033100
C        6.63155700       0.17021300       0.94249500
C        5.24590000       0.17039400       1.10861300
H        4.35322600      -1.47320100      -1.74150000
H        6.80432900      -1.47435900      -2.03658800
H        8.27713100      -0.42518000      -0.32473000
H        7.26857900       0.63051200       1.69464100
H        4.80294700       0.63063300       1.99052800
O       -0.41866100      -1.49590400      -0.82582000
O        0.03316100      -0.05985500       1.09209100
H       -1.15922000      -3.92258500      -0.69609700
H        1.52906700       2.09261800       1.34506300
C       -0.32605200       1.22544900       0.69074400
C        0.58529100       2.27937700       0.84102000
C        0.29955700       3.53513500       0.29753300
C       -0.87179900       3.74060800      -0.44422600
C       -1.77656400       2.68913100      -0.57403000
C       -1.54058600       1.44998800       0.04394000
C       -1.69673500      -1.86288200      -0.43335800
C       -1.95132900      -3.24171200      -0.39458900
C       -3.18105700      -3.72314600       0.05438500
C       -4.16446900      -2.83135400       0.49987000
C       -3.90354300      -1.46539500       0.44838000
C       -2.69112700      -0.95672000      -0.05968800
H        1.02000600       4.34221400       0.41255800
H       -3.35722900      -4.79615000       0.08713000
H       -1.05872000       4.69829300      -0.92625600
H       -5.10777000      -3.19939200       0.89865600
C       -4.78138700      -0.33653100       0.94080200
C       -3.78089200       0.83198700       1.04939200
C       -2.75526700       0.55991300      -0.10285700
C       -3.34786200       1.11043400      -1.44121600
C       -3.06100400       2.63079900      -1.37476900
H       -5.57318700      -0.10790800       0.21190600
H       -5.27169300      -0.57331700       1.89268500
H       -3.25133300       0.78108300       2.00870000
H       -4.24288700       1.82059400       0.95904800
H       -4.41098500       0.86994500      -1.54864700
H       -2.80269100       0.66282800      -2.28145700
H       -3.87427400       3.15998000      -0.85671300
H       -2.95463700       3.08882200      -2.36558700
