56
scaffold_10
B       -2.03750200      -0.60767700       0.23491600
C       -3.56816100      -0.71328000       0.45153000
H       -3.93935100      -1.40587500       1.20962400
C       -4.45814900       0.01414700      -0.26378700
H       -4.06075200       0.70159700      -1.01393500
C       -5.91802900      -0.00004100      -0.16374300
C       -6.62171700      -0.83151700       0.73333600
C       -8.01263600      -0.80119100       0.79071900
C       -8.73780600       0.05883500      -0.04606800
C       -8.05738800       0.88870500      -0.94210000
C       -6.66323900       0.85752200      -0.99866900
H       -6.07263800      -1.50460500       1.38690900
H       -8.53805800      -1.44954500       1.48878500
H       -9.82437600       0.07891000       0.00178900
H       -8.61218600       1.55847900      -1.59562400
H       -6.13186600       1.50311300      -1.69623800
O       -1.21508200      -1.34456600       1.07383200
O       -1.53260900       0.19780400      -0.78479700
H       -0.43517500      -3.71527700       1.46514300
H       -1.62444700       2.70201600      -1.22384700
C       -0.45984600       1.04442100      -0.55162600
C       -0.65972000       2.39469100      -0.83095000
C        0.35321500       3.34475500      -0.60318700
C        1.53939300       2.87575300      -0.07245800
C        1.73802900       1.52236900       0.20265500
C        0.77449100       0.54371100      -0.05582600
C        0.05987900      -1.77052300       0.73843900
C        0.34161600      -3.10906100       1.00849600
C        1.59035600      -3.67281600       0.69136600
C        2.51459200      -2.83982500       0.09051500
C        2.23452500      -1.49818900      -0.16899300
C        1.02194700      -0.89107200       0.16968900
H        0.19912500       4.39930100      -0.81194500
H        1.80745700      -4.71824400       0.88941800
O        2.95309700       1.34852800       0.80500700
C        3.66433700       2.61568000       0.65461300
O        2.64003700       3.60093000       0.31533500
C        4.29973900       2.98550500       1.97913500
H        5.03610800       2.22316900       2.25648600
H        4.80705200       3.95182400       1.88447100
H        3.53086400       3.05048400       2.75555800
C        4.64444100       2.50045900      -0.50641800
H        5.12919700       3.46850900      -0.67461300
H        5.40723700       1.75040600      -0.27241600
H        4.10688900       2.19741900      -1.41128200
O        3.27912900      -0.93338300      -0.84724800
C        4.37810600      -1.89190600      -0.76842200
O        3.76223100      -3.16099800      -0.38541900
C        5.33947100      -1.45757400       0.33120000
H        6.12923400      -2.20829000       0.44556000
H        5.79096200      -0.49522900       0.06816800
H        4.79370500      -1.35328000       1.27506200
C        5.01077200      -2.03151400      -2.13770500
H        5.43211600      -1.06798900      -2.44508500
H        5.81531600      -2.77378300      -2.09535500
H        4.25735500      -2.34950400      -2.86533800
