61
scaffold_7
B       -1.03717600       0.88310900       0.02388900
C       -2.53533100       0.90326300      -0.36806500
H       -2.83378900       1.43700600      -1.27262800
C       -3.49032500       0.32220600       0.39485300
H       -3.16671600      -0.18645200       1.30510500
C       -4.93452300       0.29331900       0.16424800
C       -5.54776400       0.88602200      -0.95986500
C       -6.92807300       0.82487600      -1.13220000
C       -7.73185000       0.17154400      -0.18725500
C       -7.14126400      -0.42135400       0.93267200
C       -5.75764000      -0.35989200       1.10415500
H       -4.93642600       1.39557600      -1.70034500
H       -7.38391400       1.28723900      -2.00515700
H       -8.80985500       0.12677100      -0.32576100
H       -7.75769700      -0.93002000       1.67068800
H       -5.29582400      -0.82031000       1.97620900
O       -0.17777700       1.64257800      -0.75008700
O       -0.56139300       0.12583700       1.11736200
H        0.42862900       4.09467700      -0.58258500
H       -1.93841300      -2.10579300       1.28676200
C       -0.13068900      -1.12167800       0.66997300
C       -0.98742000      -2.22483200       0.77600000
C       -0.63928500      -3.44120100       0.18231900
C        0.53528600      -3.54989400      -0.57344300
C        1.38698700      -2.45019900      -0.65449400
C        1.09935800      -1.25687900       0.02698800
C        1.07531600       2.06558100      -0.33598800
C        1.25178800       3.45543800      -0.27340500
C        2.44313100       3.99831300       0.20671500
C        3.45888200       3.15363400       0.66873300
C        3.27646500       1.77636700       0.58777800
C        2.11353300       1.20683500       0.03325600
H       -1.31620800      -4.28893500       0.26451700
H        2.56012600       5.07872900       0.25600700
H        0.76478500      -4.46971100      -1.10792400
H        4.36685600       3.56422900       1.10609300
C        4.17840400       0.70294900       1.13900800
C        3.25566900      -0.54219100       1.19404500
C        2.27271600      -0.30332200      -0.06156300
C        2.84982400      -0.73662500      -1.49683500
C        2.62236900      -2.27660200      -1.50393200
H        5.04898300       0.52943400       0.49628100
H        4.55869200       0.96492200       2.13545000
H        3.48525100      -2.81311300      -1.09393000
H        2.46516400      -2.65120300      -2.52451200
C        1.95944500      -0.11353000      -2.59712000
H        2.07278100       0.97585800      -2.62047400
H        2.26567400      -0.51437000      -3.57160100
H        0.90092200      -0.34643300      -2.44077100
C        4.29283200      -0.33810500      -1.81896800
H        5.02942800      -0.82562400      -1.17634400
H        4.51617700      -0.62198000      -2.85618500
H        4.41824100       0.74802400      -1.73467700
C        4.03396100      -1.86043000       1.24017600
H        4.59346300      -1.90414000       2.18432400
H        3.34818200      -2.71553800       1.21873400
H        4.75302600      -1.96711300       0.42470800
C        2.42859700      -0.46944300       2.49964600
H        1.76460600      -1.33602600       2.59026700
H        3.11724400      -0.47126900       3.35400400
H        1.81744500       0.43768300       2.54152700
