58
scaffold_2
B       -1.56362600      -0.50826800       0.31059200
C       -3.09016600      -0.62527300       0.54627200
H       -3.44144400      -1.19676500       1.40770100
C       -4.00032400      -0.05408900      -0.27736200
H       -3.62238800       0.51342000      -1.13079900
C       -5.45935800      -0.10016300      -0.17502000
C       -6.13899600      -0.78428900       0.85518300
C       -7.53041400      -0.79325600       0.90657500
C       -8.27978900      -0.12082400      -0.06913800
C       -7.62329500       0.56152100      -1.09770400
C       -6.22858800       0.57040300      -1.14783400
H       -5.57078800      -1.31080000       1.61779700
H       -8.03736900      -1.32580400       1.70850100
H       -9.36666800      -0.13095600      -0.02544700
H       -8.19712300       1.08535400      -1.85913600
H       -5.71556600       1.10099300      -1.94845300
O       -0.71332700      -1.06360900       1.26262700
O       -1.07817500       0.13317200      -0.83271800
H        0.13766400      -3.36681900       1.98267400
H       -1.21731900       2.62072400      -1.50250500
C       -0.03272600       1.03547000      -0.66827200
C       -0.26822800       2.35924700      -1.04158900
C        0.70872400       3.31489000      -0.78720000
C        1.89198300       2.98465400      -0.10952700
C        2.13070600       1.64537000       0.25102300
C        1.19002400       0.64192900      -0.10875800
C        0.54496900      -1.54358900       0.92570100
C        0.85506500      -2.83072100       1.36673500
C        2.06561100      -3.40246400       0.99011600
C        2.94096500      -2.74076800       0.11829200
C        2.61731000      -1.44650600      -0.33202200
C        1.45426100      -0.79760700       0.15740200
H        0.53609200       4.35067900      -1.07680500
H        2.32143500      -4.40090700       1.34217600
C        4.24017000      -3.42796800      -0.27545200
H        4.95157200      -3.31189300       0.55847200
H        4.06474200      -4.50709300      -0.37907600
C        4.88625400      -2.86428400      -1.54809100
H        4.31912200      -3.19728700      -2.42998800
H        5.90765400      -3.25354800      -1.64912900
C        4.88096400      -1.33157700      -1.50889000
H        5.43258100      -0.98430300      -0.62171500
H        5.38450100      -0.91760300      -2.39203800
C        3.43691800      -0.82116200      -1.45219000
H        3.40655200       0.26918600      -1.41420400
H        2.93862900      -1.09528600      -2.39696600
C        3.35312000       1.27982200       1.08326000
H        4.12181900       0.81738700       0.44973400
H        3.06811400       0.51163600       1.81265100
C        3.98676000       2.48723000       1.78694500
H        4.93266800       2.18181900       2.25216600
H        3.32431400       2.84422600       2.58960300
C        4.20763000       3.61597900       0.77469000
H        4.76071300       4.45119700       1.22299300
H        4.81085500       3.23323600      -0.06254100
C        2.85038200       4.10718300       0.25767700
H        2.98184500       4.76565900      -0.61220900
H        2.37835200       4.72344700       1.03936600
